
#======================================================================
# CRYSTAL DATA
#----------------------------------------------------------------------
data_VESTA_phase_1

_chemical_name_common                  'Cs3 Ge3 Cl9'
_cell_length_a                         7.693633
_cell_length_b                         7.693633
_cell_length_c                         9.534902
_cell_angle_alpha                      90.000000
_cell_angle_beta                       90.000000
_cell_angle_gamma                      120.000000
_cell_volume                           488.775845
_space_group_name_H-M_alt              'P 1'
_space_group_IT_number                 1

loop_
_space_group_symop_operation_xyz
   'x, y, z'

loop_
   _atom_site_label
   _atom_site_occupancy
   _atom_site_fract_x
   _atom_site_fract_y
   _atom_site_fract_z
   _atom_site_adp_type
   _atom_site_U_iso_or_equiv
   _atom_site_type_symbol
   Cs0        1.0     0.333333     0.666667     0.665070    Uiso  ? Cs
   Cs1        1.0     0.000000     0.000000     0.998403    Uiso  ? Cs
   Cs2        1.0     0.666667     0.333333     0.331737    Uiso  ? Cs
   Ge3        1.0     0.333333     0.666667     0.182200    Uiso  ? Cu
   Ge4        1.0     0.000000     0.000000     0.515533    Uiso  ? Cu
   Ge5        1.0     0.666667     0.333333     0.848866    Uiso  ? Cu
   Cl6        1.0     0.182691     0.365383     0.314021    Uiso  ? Cl
   Cl7        1.0     0.182691     0.817308     0.314021    Uiso  ? Cl
   Cl8        1.0     0.634617     0.817308     0.314021    Uiso  ? Cl
   Cl9        1.0     0.849358     0.698716     0.647354    Uiso  ? Cl
   Cl10       1.0     0.849358     0.150642     0.647354    Uiso  ? Cl
   Cl11       1.0     0.301284     0.150642     0.647354    Uiso  ? Cl
   Cl12       1.0     0.516025     0.032050     0.980688    Uiso  ? Cl
   Cl13       1.0     0.516025     0.483975     0.980688    Uiso  ? Cl
   Cl14       1.0     0.967950     0.483975     0.980688    Uiso  ? Cl
